Version 4
SHEET 1 1000 680
WIRE -512 -336 -608 -336
WIRE -608 -320 -608 -336
WIRE -512 -240 -512 -256
WIRE -512 -240 -608 -240
WIRE -608 -192 -608 -240
WIRE 704 -80 208 -80
WIRE 800 -80 704 -80
WIRE -384 -32 -496 -32
WIRE 208 -32 208 -80
WIRE 208 -32 -288 -32
WIRE -384 0 -432 0
WIRE -256 0 -288 0
WIRE 704 0 704 -16
WIRE 448 16 96 16
WIRE 560 16 448 16
WIRE 448 32 448 16
WIRE 560 32 560 16
WIRE -496 80 -496 48
WIRE -432 80 -432 0
WIRE -432 80 -496 80
WIRE 208 128 208 -32
WIRE 96 144 96 16
WIRE 176 144 96 144
WIRE 448 160 448 96
WIRE 448 160 240 160
WIRE 560 160 560 112
WIRE 560 160 448 160
WIRE 640 160 560 160
WIRE 784 160 720 160
WIRE -352 176 -400 176
WIRE -256 176 -256 0
WIRE -256 176 -288 176
WIRE -208 176 -256 176
WIRE -96 176 -128 176
WIRE -16 176 -96 176
WIRE 176 176 -16 176
WIRE 720 240 720 160
WIRE -400 256 -400 176
WIRE -96 256 -96 176
WIRE -16 256 -16 176
WIRE 96 256 96 144
WIRE -400 368 -400 336
WIRE -96 368 -96 320
WIRE -16 368 -16 336
WIRE -16 368 -96 368
WIRE 96 368 96 336
WIRE 96 368 -16 368
WIRE 208 368 208 192
WIRE 208 368 96 368
WIRE 304 368 208 368
WIRE 720 368 720 304
WIRE 720 368 304 368
WIRE 304 400 304 368
FLAG 944 -64 +5V
FLAG 944 16 0
FLAG -608 -192 0
FLAG 304 400 0
FLAG 800 -80 +5V
FLAG 704 0 0
FLAG 784 160 ADC
FLAG -400 368 0
FLAG -496 80 0
SYMBOL Opamps\\LTC1050 208 96 R0
SYMATTR InstName U1
SYMBOL voltage 944 -80 R0
WINDOW 123 0 0 Left 2
WINDOW 39 0 0 Left 2
SYMATTR InstName V1
SYMATTR Value 5
SYMBOL res -32 240 R0
SYMATTR InstName R1
SYMATTR Value 100k
SYMBOL res 80 240 R0
SYMATTR InstName R2
SYMATTR Value 1k
SYMBOL res 544 16 R0
SYMATTR InstName R3
SYMATTR Value 100k
SYMBOL res 736 144 R90
WINDOW 0 0 56 VBottom 2
WINDOW 3 32 56 VTop 2
SYMATTR InstName R6
SYMATTR Value 1k
SYMBOL res -112 160 R90
WINDOW 0 0 56 VBottom 2
WINDOW 3 32 56 VTop 2
SYMATTR InstName R5
SYMATTR Value 10k
SYMBOL cap -112 256 R0
SYMATTR InstName C1
SYMATTR Value 100n
SYMBOL cap 704 240 R0
SYMATTR InstName C2
SYMATTR Value 100n
SYMBOL cap 688 -80 R0
SYMATTR InstName C3
SYMATTR Value 100n
SYMBOL cap 432 32 R0
SYMATTR InstName C4
SYMATTR Value 0
SYMBOL current -608 -240 R180
WINDOW 0 24 80 Left 2
WINDOW 3 62 39 Left 2
WINDOW 123 64 -7 Left 2
WINDOW 39 0 0 Left 2
SYMATTR InstName I1
SYMATTR Value PULSE(50n 110n 100m 1u 1u 1s)
SYMATTR Value2 AC 1
SYMBOL voltage -400 240 R0
WINDOW 123 0 0 Left 2
WINDOW 39 0 0 Left 2
SYMATTR InstName bruit
SYMATTR Value SINE(0 325 50)
SYMBOL cap -288 160 R90
WINDOW 0 0 32 VBottom 2
WINDOW 3 32 32 VTop 2
SYMATTR InstName C5
SYMATTR Value 1p
SYMBOL gasSensor -336 -16 M180
SYMATTR InstName Capteur_gaz
SYMBOL voltage -496 -48 M0
WINDOW 123 0 0 Left 2
WINDOW 39 0 0 Left 2
SYMATTR InstName V3
SYMATTR Value PULSE(0 1 0.2 10u 10u 2)
SYMBOL res -528 -352 R0
SYMATTR InstName R4
SYMATTR Value 1k
TEXT -320 -352 Left 2 !;op
TEXT -344 -384 Left 2 ;Commandes pour les simulations
TEXT 272 -288 Left 2 ;Ampli transimpédance 2 étages : IN=110nA et OUT=1.1V
TEXT -320 -312 Left 2 !.tran 0 5s 0 5u
TEXT -312 -264 Left 2 !;.ac dec 1000 1m 1G
RECTANGLE Normal 128 -160 -352 -400 2
