Version 4
SHEET 1 1000 680
WIRE -800 -192 -912 -192
WIRE -912 -144 -912 -192
WIRE -1120 -96 -1120 -112
WIRE -1040 -96 -1120 -96
WIRE 704 -80 208 -80
WIRE 800 -80 704 -80
WIRE -1120 -64 -1120 -96
WIRE 704 0 704 -16
WIRE 448 16 96 16
WIRE 560 16 448 16
WIRE -1120 32 -1120 0
WIRE -912 32 -912 -64
WIRE -800 32 -912 32
WIRE 448 32 448 16
WIRE 560 32 560 16
WIRE 208 128 208 -80
WIRE 96 144 96 16
WIRE 176 144 96 144
WIRE 448 160 448 96
WIRE 448 160 240 160
WIRE 560 160 560 112
WIRE 560 160 448 160
WIRE 640 160 560 160
WIRE 784 160 720 160
WIRE -208 176 -256 176
WIRE -96 176 -128 176
WIRE -16 176 -96 176
WIRE 176 176 -16 176
WIRE 720 240 720 160
WIRE -96 256 -96 176
WIRE -16 256 -16 176
WIRE 96 256 96 144
WIRE -256 304 -256 256
WIRE -96 368 -96 320
WIRE -16 368 -16 336
WIRE -16 368 -96 368
WIRE 96 368 96 336
WIRE 96 368 -16 368
WIRE 208 368 208 192
WIRE 208 368 96 368
WIRE 304 368 208 368
WIRE 720 368 720 304
WIRE 720 368 304 368
WIRE 304 400 304 368
FLAG 944 -64 +5V
FLAG 944 16 0
FLAG -256 304 0
FLAG 304 400 0
FLAG 800 -80 +5V
FLAG 704 0 0
FLAG 784 160 ADC
FLAG -1120 -192 gp
IOPIN -1120 -192 In
FLAG -1120 32 gn
IOPIN -1120 32 In
FLAG -1040 -96 gc
FLAG -800 -192 cp
IOPIN -800 -192 BiDir
FLAG -800 32 cn
IOPIN -800 32 BiDir
SYMBOL Opamps\\LTC1050 208 96 R0
SYMATTR InstName U1
SYMBOL voltage 944 -80 R0
WINDOW 123 0 0 Left 2
WINDOW 39 0 0 Left 2
SYMATTR InstName V1
SYMATTR Value 5
SYMBOL res -32 240 R0
SYMATTR InstName R1
SYMATTR Value 100k
SYMBOL res 80 240 R0
SYMATTR InstName R2
SYMATTR Value 1k
SYMBOL res 544 16 R0
SYMATTR InstName R3
SYMATTR Value 100k
SYMBOL res 736 144 R90
WINDOW 0 0 56 VBottom 2
WINDOW 3 32 56 VTop 2
SYMATTR InstName R6
SYMATTR Value 1k
SYMBOL res -112 160 R90
WINDOW 0 0 56 VBottom 2
WINDOW 3 32 56 VTop 2
SYMATTR InstName R5
SYMATTR Value 10k
SYMBOL cap -112 256 R0
SYMATTR InstName C1
SYMATTR Value 100n
SYMBOL cap 704 240 R0
SYMATTR InstName C2
SYMATTR Value 100n
SYMBOL cap 688 -80 R0
SYMATTR InstName C3
SYMATTR Value 100n
SYMBOL cap 432 32 R0
SYMATTR InstName C4
SYMATTR Value 0
SYMBOL current -256 256 R180
WINDOW 0 24 80 Left 2
WINDOW 3 62 39 Left 2
WINDOW 123 64 -7 Left 2
WINDOW 39 0 0 Left 2
SYMATTR InstName I1
SYMATTR Value PULSE(50n 110n 100m 1u 1u 1s)
SYMATTR Value2 AC 1
SYMBOL res -1136 -208 R0
SYMATTR InstName R
SYMATTR Value 1k
SYMBOL cap -1136 -64 R0
SYMATTR InstName C
SYMATTR Value 200µ
SYMBOL bi -912 -144 R0
SYMATTR InstName B1
SYMATTR Value I=V(cp,cn)*(10n+(v(gc,gn)*10n))
TEXT -400 -208 Left 2 !;op
TEXT -424 -240 Left 2 ;Commandes pour les simulations
TEXT 272 -288 Left 2 ;Ampli transimpédance 2 étages : IN=110nA et OUT=1.1V
TEXT -400 -168 Left 2 !;tran 0 2s 0 5u
TEXT -392 -120 Left 2 !.ac dec 1000 1m 1G
TEXT -1152 -280 Left 2 ;Cpateur de gaz
RECTANGLE Normal 48 -16 -432 -256 2
RECTANGLE Normal -528 112 -1168 -304 2
